% used in tests of,
% - switch modeling

function mpc = case5
mpc.version = '2';
mpc.baseMVA = 100.0;

%% bus data
%	bus_i	type	Pd	Qd	Gs	Bs	area	Vm	Va	baseKV	zone	Vmax	Vmin
mpc.bus = [
	1	 2	 0.0	 0.0	  0.0	  0.0	 1	 1.00000	  2.80377	 230.0	 1	 1.10000	 0.90000;
	2	 1	 300.0	 98.61	  5.0	 10.0	 1	 1.00000	 -0.73465	 230.0	 1	 1.10000	 0.90000;
	3	 2	 300.0	 98.61	  0.0	  0.0	 1	 1.00000	 -0.55972	 230.0	 1	 1.10000	 0.90000;
	4	 3	 400.0	 131.47	  0.0	  0.0	 1	 1.00000	  0.00000	 230.0	 1	 1.10000	 0.90000;
	10	 2	 0.0	 0.0	  0.0	  0.0	 1	 1.00000	  3.59033	 230.0	 1	 1.10000	 0.90000;
];

%% generator data
%	bus	Pg	Qg	Qmax	Qmin	Vg	mBase	status	Pmax	Pmin
mpc.gen = [
	1	  40.0	   30.0	  30.0	  -30.0	 1.00000	 100.0	 1	  40.0	 0.0;
	1	 170.0	  127.0	 127.0	 -127.5	 1.00000	 100.0	 1	 170.0	 0.0;
	3	 324.0	  390.0	 390.0	 -390.0	 1.00000	 100.0	 1	 520.0	 0.0;
	4	   0.0	  -10.0	 150.0	 -150.0	 1.00000	 100.0	 1	 200.0	 0.0;
	10	 470.0	 -165.0	 450.0	 -450.0	 1.00000	 100.0	 1	 600.0	 0.0;
];

%% generator cost data
%	2	startup	shutdown	n	c(n-1)	...	c0
mpc.gencost = [
	2	 0.0	 0.0	 2	 14.0	 0.0;
	2	 0.0	 0.0	 2	 15.0	 0.0;
	2	 0.0	 0.0	 2	 30.0	 0.0;
	2	 0.0	 0.0	 2	 40.0	 0.0;
	2	 0.0	 0.0	 2	 10.0	 0.0;
];

%% branch data
%	fbus	tbus	r	x	b	rateA	rateB	rateC	ratio	angle	status	angmin	angmax
mpc.branch = [
	1	 4	 0.00304	 0.0304	 0.00658	 426	 426	 426	 0.0	  0.0	 1	 -30.0	 30.0;
	1	 10	 0.00064	 0.0064	 0.03126	 426	 426	 426	 0.0	  0.0	 1	 -30.0	 30.0;
	3	 4	 0.00297	 0.0297	 0.00674	 426	 426	 426	 1.05	  1.0	 1	 -30.0	 30.0;
	3	 4	 0.00297	 0.0297	 0.00674	 426	 426	 426	 1.05	 -1.0	 1	 -30.0	 30.0;
	4	 10	 0.00297	 0.0297	 0.00674	 240	 240	 240	 0.0	  0.0	 1	 -30.0	 30.0;
];

%% switch data
%	f_bus	t_bus	psw	qsw	state	thermal_rating	status
mpc.switch = [
	1	 2	 300.0	 98.61	 1	 1000.0	 1;
	3	 2	   0.0	  0.00	 0	 1000.0	 1;
	3	 4	   0.0	  0.00	 1	 1000.0	 0;
];

